 # Positions of grains centers of mass
 CRYSTAL
 PRIMVEC
    500.00000000        0.00000000        0.00000000
      0.00000000      200.00000000        0.00000000
      0.00000000        0.00000000      200.00000000
 CONVVEC
    500.00000000        0.00000000        0.00000000
      0.00000000      200.00000000        0.00000000
      0.00000000        0.00000000      200.00000000
 PRIMCOORD
      100 1
1      457.48379967       66.06767490      158.28055485
1       75.77409732       44.55307868       33.99934106
1       90.60029813      122.45860537      120.60113055
1      315.81142039      134.28319538      117.68155475
1      451.59713045       35.33260388       29.55032962
1      128.09445189      144.00127970       72.62415678
1      408.82245280       78.82456471      124.57532887
1      418.75956073       85.34625693       52.26519358
1      105.26889932      146.38938186      100.41372120
1      255.49246097       90.25756869      106.62915830
1      354.36699140       44.74496569       38.85482854
1      195.91175047       53.84219976      107.46913352
1      207.24214457       96.49716699       57.95528101
1       84.72562993      138.64543791       73.23079463
1      423.02980864      160.47741202       76.63989807
1      400.33386909       46.31695670      114.19095626
1      118.82859200       86.57696912       66.80562378
1      383.75911759      163.09910848       90.61891559
1       73.48157473       67.24286101      158.84652156
1      269.62543873      100.95023774       98.58135952
1      300.04194900      107.36763299      122.68409071
1      375.35380510      108.62995237      125.72901993
1      424.86346803       48.50105014      161.29127595
1      272.49514329      109.17668185      169.81842506
1       64.98122155      120.33800214      120.65025394
1      124.09169435      158.44841811       32.63455155
1      298.03454005       65.76602128       38.20791910
1      466.43572422       42.75464702      136.43716037
1      329.14906010      136.85772245       48.94229256
1      471.05802320       77.20198684       83.94983770
1      302.51353566      103.94934778       99.49090483
1       85.69541106       35.32337443      138.31266402
1      229.91614369       61.60645012      157.11081713
1      253.12067505      141.31590411       77.33067053
1      131.60938118       90.75057222       60.68898976
1       79.46948343      102.72979803       28.14923275
1      403.57527984       88.76281996       65.10214477
1      442.45624291      167.16570200       43.95676265
1      108.57426076      162.87483448      106.31513225
1      352.90298060      151.06158046      125.63463544
1      406.86593484      101.61754231       60.85856495
1      168.64933008      158.42618003       76.24704720
1      330.26255909       95.52926356       55.60578411
1      140.92768157      138.67108927       82.44800654
1      170.91815853      151.48708673      120.26432181
1      424.52476318       38.90748169       32.52847701
1      275.48286482       26.82161698       79.58318848
1      269.68811472      156.09082869       48.43166496
1      399.80753468      135.01385805      143.57823084
1      294.67114362      146.78731550       59.37827451
1      394.72843542      118.56738585       84.25983623
1      397.10358907       59.80390349      110.68906214
1      377.43515059      116.37943076       83.23199587
1      326.23775082      142.20498728      147.37913358
1      332.65424928       57.47877281       58.25550373
1      299.03393376      132.86546971       57.05833402
1      189.97944785      110.67854644       58.72060967
1      422.19421090      156.63509057      110.17145394
1      131.05953239      105.42252108       78.77093461
1      361.53833267      141.21787510       47.94833119
1      152.79042233      158.78243639      140.71338859
1       52.05852945       74.98870479      137.60246360
1       67.63591549      127.24363978       60.99921766
1      367.49844620       54.89591352      137.15043340
1       68.15977824      125.27685093      129.11510096
1      386.34099256       45.47535861       58.31124938
1      439.58609513      175.39484659      152.60284644
1      189.74773573       49.05983619      119.05612416
1      323.22325874       61.37809233       80.69064383
1      139.87284352       75.72836200      145.33377397
1      195.17666096      127.77649992      142.06117350
1      335.27026197       39.11875816       35.60616934
1      452.62346338      133.29938401      144.33805518
1      219.36017404      158.49284693       91.80186762
1       99.41906332       60.93534420       93.80712190
1      346.50539738       46.91276297      101.43736946
1      343.84354957       73.08201669      112.84287009
1      441.36594166      134.56553977       32.59396336
1      141.56696749       56.52570603      140.41980983
1      425.43204861      129.56626605       49.81524465
1       65.56035195       76.83034572      148.78001761
1      128.99314008       57.02721219      171.00248837
1       44.08143542       48.29229534       51.85195553
1      299.23186194       43.30369946      162.99364143
1      370.24651188       61.30595271      165.36791260
1      112.32584776       55.06519064      110.59207667
1      438.59324794       50.07199047      106.14973095
1       51.59714788      166.27208082      143.31102724
1      272.67401564       61.86883693      128.76269254
1      251.01135843      127.38930462      139.25238172
1      447.85876369      111.83822654       78.60819595
1       40.88655506       30.23405641       70.94390906
1      230.21388067      143.53420050      103.31258711
1       59.51141859      103.62858421       66.70974751
1      141.78941765       40.63659686       51.67339126
1      257.07606952      123.07670577       54.94537809
1      384.16340243      136.27156553       37.30510198
1      261.86688197       52.04889670       55.74863057
1      335.08936218      100.25790164       43.21388226
1      126.15436616       61.72653971      136.05698821
