 # Positions of nodes
 CRYSTAL
 PRIMVEC
    500.00000000        0.00000000        0.00000000
      0.00000000      200.00000000        0.00000000
      0.00000000        0.00000000      200.00000000
 CONVVEC
    500.00000000        0.00000000        0.00000000
      0.00000000      200.00000000        0.00000000
      0.00000000        0.00000000      200.00000000
 PRIMCOORD
      100 1
1      458.44757200       63.26566300      181.60964800
1       69.86557900       44.61876200       44.16184900
1       89.17714600      125.40598700      114.25090500
1      321.65993600      198.23205800      107.74699500
1      445.75549200       27.93529100       16.64169900
1       10.06741400      156.57192400       86.75661100
1      473.78258500       90.68707300      121.04677200
1      420.34702300       84.70407000       16.02836400
1      108.75630700      176.44484500       97.07296600
1      258.74597900       85.82611700        1.64685600
1      485.10230000       44.86174000       21.87880400
1      206.69815900       54.74065800      187.86991500
1      216.76051700       98.49218800       50.57060200
1       23.70084800      178.03277500       79.01021900
1      429.52961700      155.74351700        1.16286600
1      408.42595500       48.09477000      194.96653900
1        9.11963500       88.32550500       68.06734500
1      373.46215500      156.35906700       85.36035700
1       84.91391600       57.13356300      165.34261800
1      287.17849900       91.58612200      103.99688800
1      291.54344200       92.52627900      109.08383000
1      372.71304200      113.75995100      118.20473900
1      428.38744600       26.53701100      173.30287600
1      488.28261000      106.73831500      172.86350800
1       13.86974000      126.84605800      117.81747300
1      123.92615900      153.23358300       25.04794600
1      306.56734000       70.45225600       20.28449200
1      456.02536900       25.65174200      196.01098500
1      324.03824900      133.15971400       40.76458200
1      470.01253300       89.98734300       87.18900000
1      309.38380700      103.30109700        7.45349400
1       87.67348200       28.14135800      151.68436000
1      227.49966400       56.64888900      167.88974000
1      261.23321600      182.15935200       74.14650700
1      116.76447000       91.71487000       56.51491900
1       89.56645600      107.68387500       30.19669200
1      406.92377500      101.17549200       65.73907700
1      457.31958800      161.13310300       36.61704100
1      118.31474900      160.00769600        0.76050400
1      358.12984900      144.44657200      113.47153800
1      400.14186500        8.96783400       57.77114900
1      158.15970000      165.41489600       73.55140400
1      327.58088300      196.87790800       39.90997700
1      139.27816200      153.47793200       77.64269000
1      165.72355500      157.19057800      184.43563900
1      426.54987600       31.39774000       24.97699000
1      281.46824300       32.87537700       74.55509300
1      273.68529100      153.07459700       30.12907000
1      410.13831000      135.25854500      194.64329200
1      289.52894300      146.93108600       45.92589900
1      396.21633900      116.42635000       75.55290300
1      397.95463800       50.74882200      108.42189300
1      473.91339800      113.79190300      198.57050200
1      324.00853600      132.41218900      194.64171500
1      321.28890000       54.57142100       60.82531800
1      305.58024500      185.02005400       30.49673600
1      178.70957800      189.61316000       63.05269200
1      493.47859600      158.67684100      102.87173500
1      115.70834100      112.06171600       14.37913600
1      355.99006600      188.40038800       47.97955600
1      159.74523500      160.25934100      148.16487900
1       23.43655600       73.42094300      177.13781300
1       76.44561400      121.69303600       61.60591000
1      371.14160100       39.58713800      130.80111400
1       73.80955000      124.01012700      187.23440800
1      391.48864000       37.86120400       60.84460200
1      438.69573200      175.16597000      187.27602700
1      192.32849900       29.20046100      124.75964800
1      319.01017300       54.59743400       66.11501100
1      135.92216000        2.43945600      174.57840600
1      186.74746100      142.58350600      151.32622100
1      329.51019900       46.05375100       30.09683800
1      474.61386800      123.47743700      145.47205100
1       11.08658100      166.25605200       87.49572900
1      100.90889700       61.61822000       87.01100200
1      342.47198900       17.48728800      101.35576700
1      339.30483600       69.74460300      199.27477700
1      457.73702700      137.64997300       24.53029500
1       20.20115500       20.37331500      173.03029700
1      421.72659600      123.26413000       48.17678900
1       66.52755100       13.26053300      163.01613800
1      109.40941300       50.77752600      172.15885700
1       53.37988300       39.90325300       52.77631000
1      296.02394000       41.43133400      163.85811600
1      371.10257200       59.83655300      173.05027400
1      106.32611200       53.55867200      182.58881700
1      424.71968100       38.85185500      105.49343600
1       41.23431500      168.10321400      163.37028600
1      279.09709400       61.46280400      129.16046900
1      247.55984700      192.65113300      138.80181800
1      448.97444700      106.53620200       75.40776500
1       47.00187700       20.50513100       63.32140100
1      230.11156800      168.08915000      198.59535400
1       50.38926900        9.18404800       67.51008700
1      136.51610000       29.97261700       54.35591300
1      262.70278500      126.02994700       48.01359200
1      390.76712900      133.18878600       43.53207900
1      277.50760400       50.79334000       63.31773700
1      327.13631800      104.11401300       35.11093700
1      110.97535900       52.55161000      144.24754400
